
 OpenBabel07241920383D

 17 16  0  0  0  0  0  0  0  0999 V2000
   -7.7228    3.2268    0.0000 C   0  0  0  0  0  0  0  0  0  0  0  0
   -7.5590    1.4143    0.0000 C   0  0  0  0  0  0  0  0  0  0  0  0
   -7.6568    3.5908   -1.0040 H   0  0  0  0  0  0  0  0  0  0  0  0
   -6.9379    3.6558    0.5872 H   0  0  0  0  0  0  0  0  0  0  0  0
   -8.6698    3.4993    0.4168 H   0  0  0  0  0  0  0  0  0  0  0  0
   -5.8944    1.9361    0.0000 C   0  0  0  0  0  0  0  0  0  0  0  0
   -7.9019    0.9004   -0.8737 H   0  0  0  0  0  0  0  0  0  0  0  0
   -8.0153    0.7306    0.6851 H   0  0  0  0  0  0  0  0  0  0  0  0
   -4.4481    0.7552    0.0000 C   0  0  0  0  0  0  0  0  0  0  0  0
   -5.7774    2.5426    0.8737 H   0  0  0  0  0  0  0  0  0  0  0  0
   -5.8105    2.3710   -0.9740 H   0  0  0  0  0  0  0  0  0  0  0  0
   -3.6294    1.9086    0.0000 C   0  0  0  0  0  0  0  0  0  0  0  0
   -4.3653    0.1430   -0.8737 H   0  0  0  0  0  0  0  0  0  0  0  0
   -4.3428   -0.0236    0.7261 H   0  0  0  0  0  0  0  0  0  0  0  0
   -3.9119    2.5465   -0.8113 H   0  0  0  0  0  0  0  0  0  0  0  0
   -2.6056    1.6193   -0.1136 H   0  0  0  0  0  0  0  0  0  0  0  0
   -3.7514    2.4326    0.9249 H   0  0  0  0  0  0  0  0  0  0  0  0
  1  2  1  0  0  0  0
  1  3  1  0  0  0  0
  1  4  1  0  0  0  0
  1  5  1  0  0  0  0
  2  6  1  0  0  0  0
  2  7  1  0  0  0  0
  2  8  1  0  0  0  0
  6  9  1  0  0  0  0
  6 10  1  0  0  0  0
  6 11  1  0  0  0  0
  9 12  1  0  0  0  0
  9 13  1  0  0  0  0
  9 14  1  0  0  0  0
 12 15  1  0  0  0  0
 12 16  1  0  0  0  0
 12 17  1  0  0  0  0
M  END
